moduleName=grails-dynamic-modules
moduleVersion=1.0.0
extensionClasses=org.rainboyan.plugins.extensions.GrailsPluginExtension,org.rainboyan.plugins.extensions.GrailsPluginManagerExtension